examples/Custom_controls_example/DSSfiles/PV_files/PV_Gen_10_100_random.txt
new PVSystem.b_pv_10_1 phases=1 bus1=x_2024846e_t_07570_sld_1.2 kv=0.24018 irradiance=1 Pmpp=2.06 pf=1 pctPmpp=86.96 kVA=1.79 conn=wye %cutin=0.1 %cutout=0.1 Vmaxpu=1.2
new PVSystem.3p_pv_10_2 phases=3 bus1=x_4026373e_t_07570_sld_1.1.2.3 kv=0.48 irradiance=1 Pmpp=4.25 pf=1 pctPmpp=86.96 kVA=3.7 conn=delta %cutin=0.1 %cutout=0.1 Vmaxpu=1.2
new PVSystem.3p_pv_10_3 phases=3 bus1=x_936059e_t_07570_sld_1.1.2.3 kv=0.48 irradiance=1 Pmpp=3.68 pf=1 pctPmpp=86.96 kVA=3.2 conn=delta %cutin=0.1 %cutout=0.1 Vmaxpu=1.2
new PVSystem.3p_pv_10_4 phases=3 bus1=x_1807862e_t_07570_sld_3.1.2.3 kv=0.48 irradiance=1 Pmpp=4.79 pf=1 pctPmpp=86.96 kVA=4.17 conn=delta %cutin=0.1 %cutout=0.1 Vmaxpu=1.2
new PVSystem.b_pv_10_5 phases=1 bus1=x_4540963e_t_07570_sld_1.2 kv=0.24018 irradiance=1 Pmpp=3.1 pf=1 pctPmpp=86.96 kVA=2.69 conn=wye %cutin=0.1 %cutout=0.1 Vmaxpu=1.2
new PVSystem.b_pv_10_6 phases=1 bus1=x_1851663e_t_07570_sld_2.2 kv=0.24018 irradiance=1 Pmpp=3.87 pf=1 pctPmpp=86.96 kVA=3.37 conn=wye %cutin=0.1 %cutout=0.1 Vmaxpu=1.2
new PVSystem.b_pv_10_7 phases=1 bus1=x_4227069e_t_07570_sld_2.2 kv=0.24018 irradiance=1 Pmpp=3.87 pf=1 pctPmpp=86.96 kVA=3.37 conn=wye %cutin=0.1 %cutout=0.1 Vmaxpu=1.2
new PVSystem.a_pv_10_8 phases=1 bus1=x_850250e_t_07570_sld_2.1 kv=0.24018 irradiance=1 Pmpp=4.09 pf=1 pctPmpp=86.96 kVA=3.56 conn=wye %cutin=0.1 %cutout=0.1 Vmaxpu=1.2
new PVSystem.a_pv_10_9 phases=1 bus1=x_p5403124_t_07570_sld_3.1 kv=0.24018 irradiance=1 Pmpp=4.37 pf=1 pctPmpp=86.96 kVA=3.8 conn=wye %cutin=0.1 %cutout=0.1 Vmaxpu=1.2
new PVSystem.c_pv_10_10 phases=1 bus1=x_4552976e_t_07570_sld_1.3 kv=0.24018 irradiance=1 Pmpp=2.04 pf=1 pctPmpp=86.96 kVA=1.78 conn=wye %cutin=0.1 %cutout=0.1 Vmaxpu=1.2
new PVSystem.3p_pv_10_11 phases=3 bus1=x_4671820e_t_07570_sld_3.1.2.3 kv=0.48 irradiance=1 Pmpp=4.44 pf=1 pctPmpp=86.96 kVA=3.86 conn=delta %cutin=0.1 %cutout=0.1 Vmaxpu=1.2
new PVSystem.a_pv_10_12 phases=1 bus1=x_4772512e_t_07570_sld_2.1 kv=0.24018 irradiance=1 Pmpp=3.91 pf=1 pctPmpp=86.96 kVA=3.4 conn=wye %cutin=0.1 %cutout=0.1 Vmaxpu=1.2
new PVSystem.3p_pv_10_13 phases=3 bus1=x_4700793e_t_07570_sld_2.1.2.3 kv=0.48 irradiance=1 Pmpp=29.97 pf=1 pctPmpp=86.96 kVA=26.06 conn=delta %cutin=0.1 %cutout=0.1 Vmaxpu=1.2
new PVSystem.3p_pv_10_14 phases=3 bus1=x_1807754e_t_07570_sld_2.1.2.3 kv=0.48 irradiance=1 Pmpp=7.7 pf=1 pctPmpp=86.96 kVA=6.7 conn=delta %cutin=0.1 %cutout=0.1 Vmaxpu=1.2
new PVSystem.3p_pv_10_15 phases=3 bus1=x_4276441e_t_07570_sld_3.1.2.3 kv=0.48 irradiance=1 Pmpp=4.14 pf=1 pctPmpp=86.96 kVA=3.6 conn=delta %cutin=0.1 %cutout=0.1 Vmaxpu=1.2
new PVSystem.3p_pv_10_16 phases=3 bus1=x_4705656e_t_07570_sld_2.1.2.3 kv=0.48 irradiance=1 Pmpp=4.25 pf=1 pctPmpp=86.96 kVA=3.7 conn=delta %cutin=0.1 %cutout=0.1 Vmaxpu=1.2
new PVSystem.b_pv_10_17 phases=1 bus1=x_1982073e_t_07570_sld_1.2 kv=0.24018 irradiance=1 Pmpp=3.1 pf=1 pctPmpp=86.96 kVA=2.69 conn=wye %cutin=0.1 %cutout=0.1 Vmaxpu=1.2
new PVSystem.3p_pv_10_18 phases=3 bus1=x_2164704e_t_07570_sld_2.1.2.3 kv=0.48 irradiance=1 Pmpp=4.0 pf=1 pctPmpp=86.96 kVA=3.48 conn=delta %cutin=0.1 %cutout=0.1 Vmaxpu=1.2
new PVSystem.b_pv_10_19 phases=1 bus1=x_4227069e_t_07570_sld_1.2 kv=0.24018 irradiance=1 Pmpp=3.87 pf=1 pctPmpp=86.96 kVA=3.37 conn=wye %cutin=0.1 %cutout=0.1 Vmaxpu=1.2
new PVSystem.a_pv_10_20 phases=1 bus1=x_p5476182_t_07570_sld_2.1 kv=0.24018 irradiance=1 Pmpp=4.14 pf=1 pctPmpp=86.96 kVA=3.6 conn=wye %cutin=0.1 %cutout=0.1 Vmaxpu=1.2
new PVSystem.c_pv_10_21 phases=1 bus1=x_1982338e_t_07570_sld_1.3 kv=0.24018 irradiance=1 Pmpp=2.04 pf=1 pctPmpp=86.96 kVA=1.78 conn=wye %cutin=0.1 %cutout=0.1 Vmaxpu=1.2
new PVSystem.c_pv_10_22 phases=1 bus1=x_4659046e_t_07570_sld_1.3 kv=0.24018 irradiance=1 Pmpp=3.06 pf=1 pctPmpp=86.96 kVA=2.66 conn=wye %cutin=0.1 %cutout=0.1 Vmaxpu=1.2
new PVSystem.3p_pv_10_23 phases=3 bus1=x_p5618240_t_07570_sld_2.1.2.3 kv=0.48 irradiance=1 Pmpp=4.6 pf=1 pctPmpp=86.96 kVA=4.0 conn=delta %cutin=0.1 %cutout=0.1 Vmaxpu=1.2
new PVSystem.b_pv_10_24 phases=1 bus1=x_p5601317_t_07570_sld_5.2 kv=0.24018 irradiance=1 Pmpp=6.19 pf=1 pctPmpp=86.96 kVA=5.38 conn=wye %cutin=0.1 %cutout=0.1 Vmaxpu=1.2
new PVSystem.a_pv_10_25 phases=1 bus1=x_2125310e_t_07570_sld_1.1 kv=0.24018 irradiance=1 Pmpp=4.54 pf=1 pctPmpp=86.96 kVA=3.95 conn=wye %cutin=0.1 %cutout=0.1 Vmaxpu=1.2
new PVSystem.b_pv_10_26 phases=1 bus1=x_4419220e_t_07570_sld_2.2 kv=0.24018 irradiance=1 Pmpp=3.45 pf=1 pctPmpp=86.96 kVA=3.0 conn=wye %cutin=0.1 %cutout=0.1 Vmaxpu=1.2
new PVSystem.a_pv_10_27 phases=1 bus1=x_2212993e_t_07570_sld_1.1 kv=0.24018 irradiance=1 Pmpp=1.82 pf=1 pctPmpp=86.96 kVA=1.58 conn=wye %cutin=0.1 %cutout=0.1 Vmaxpu=1.2
new PVSystem.a_pv_10_28 phases=1 bus1=x_x10382e_t_07570_sld_2.1 kv=0.24018 irradiance=1 Pmpp=3.68 pf=1 pctPmpp=86.96 kVA=3.2 conn=wye %cutin=0.1 %cutout=0.1 Vmaxpu=1.2
new PVSystem.3p_pv_10_29 phases=3 bus1=x_1223308e_t_07570_sld_1.1.2.3 kv=0.48 irradiance=1 Pmpp=5.17 pf=1 pctPmpp=86.96 kVA=4.5 conn=delta %cutin=0.1 %cutout=0.1 Vmaxpu=1.2
new PVSystem.c_pv_10_30 phases=1 bus1=x_1943316e_t_07570_sld_1.3 kv=0.24018 irradiance=1 Pmpp=4.94 pf=1 pctPmpp=86.96 kVA=4.3 conn=wye %cutin=0.1 %cutout=0.1 Vmaxpu=1.2
new PVSystem.3p_pv_10_31 phases=3 bus1=x_4368160e_t_07570_sld_4.1.2.3 kv=0.48 irradiance=1 Pmpp=4.48 pf=1 pctPmpp=86.96 kVA=3.9 conn=delta %cutin=0.1 %cutout=0.1 Vmaxpu=1.2
new PVSystem.3p_pv_10_32 phases=3 bus1=x_4632242e_t_07570_sld_3.1.2.3 kv=0.48 irradiance=1 Pmpp=4.14 pf=1 pctPmpp=86.96 kVA=3.6 conn=delta %cutin=0.1 %cutout=0.1 Vmaxpu=1.2
new PVSystem.a_pv_10_33 phases=1 bus1=x_4354805e_t_07570_sld_1.1 kv=0.24018 irradiance=1 Pmpp=1.82 pf=1 pctPmpp=86.96 kVA=1.58 conn=wye %cutin=0.1 %cutout=0.1 Vmaxpu=1.2
new PVSystem.3p_pv_10_34 phases=3 bus1=x_1475348e_t_07570_sld_5.1.2.3 kv=0.48 irradiance=1 Pmpp=2.3 pf=1 pctPmpp=86.96 kVA=2.0 conn=delta %cutin=0.1 %cutout=0.1 Vmaxpu=1.2
new PVSystem.3p_pv_10_35 phases=3 bus1=x_x15001e_t_07570_sld_3.1.2.3 kv=0.48 irradiance=1 Pmpp=2.88 pf=1 pctPmpp=86.96 kVA=2.5 conn=delta %cutin=0.1 %cutout=0.1 Vmaxpu=1.2
new PVSystem.c_pv_10_36 phases=1 bus1=x_p5476182_t_07570_sld_1.3 kv=0.24018 irradiance=1 Pmpp=6.13 pf=1 pctPmpp=86.96 kVA=5.33 conn=wye %cutin=0.1 %cutout=0.1 Vmaxpu=1.2
new PVSystem.a_pv_10_37 phases=1 bus1=x_1982177e_t_07570_sld_1.1 kv=0.24018 irradiance=1 Pmpp=4.48 pf=1 pctPmpp=86.96 kVA=3.9 conn=wye %cutin=0.1 %cutout=0.1 Vmaxpu=1.2
new PVSystem.c_pv_10_38 phases=1 bus1=x_4354639e_t_07570_sld_2.3 kv=0.24018 irradiance=1 Pmpp=2.76 pf=1 pctPmpp=86.96 kVA=2.4 conn=wye %cutin=0.1 %cutout=0.1 Vmaxpu=1.2
new PVSystem.c_pv_10_39 phases=1 bus1=x_p5601317_t_07570_sld_1.3 kv=0.24018 irradiance=1 Pmpp=3.22 pf=1 pctPmpp=86.96 kVA=2.8 conn=wye %cutin=0.1 %cutout=0.1 Vmaxpu=1.2
new PVSystem.c_pv_10_40 phases=1 bus1=x_4340701e_t_07570_sld_1.3 kv=0.24018 irradiance=1 Pmpp=2.04 pf=1 pctPmpp=86.96 kVA=1.78 conn=wye %cutin=0.1 %cutout=0.1 Vmaxpu=1.2
new PVSystem.3p_pv_10_41 phases=3 bus1=x_1299702e_t_07570_sld_3.1.2.3 kv=0.48 irradiance=1 Pmpp=4.44 pf=1 pctPmpp=86.96 kVA=3.86 conn=delta %cutin=0.1 %cutout=0.1 Vmaxpu=1.2
new PVSystem.3p_pv_10_42 phases=3 bus1=x_1636825e_t_07570_sld_1.1.2.3 kv=0.48 irradiance=1 Pmpp=2.18 pf=1 pctPmpp=86.96 kVA=1.9 conn=delta %cutin=0.1 %cutout=0.1 Vmaxpu=1.2
new PVSystem.3p_pv_10_43 phases=3 bus1=x_4130912e_t_07570_sld_2.1.2.3 kv=0.48 irradiance=1 Pmpp=5.33 pf=1 pctPmpp=86.96 kVA=4.63 conn=delta %cutin=0.1 %cutout=0.1 Vmaxpu=1.2
new PVSystem.3p_pv_10_44 phases=3 bus1=x_p5590213_t_07570_sld_2.1.2.3 kv=0.48 irradiance=1 Pmpp=133.19 pf=1 pctPmpp=86.96 kVA=115.82 conn=delta %cutin=0.1 %cutout=0.1 Vmaxpu=1.2
new PVSystem.3p_pv_10_45 phases=3 bus1=x_2281906ed_t_07570_sld_3.1.2.3 kv=0.48 irradiance=1 Pmpp=5.33 pf=1 pctPmpp=86.96 kVA=4.63 conn=delta %cutin=0.1 %cutout=0.1 Vmaxpu=1.2
new PVSystem.3p_pv_10_46 phases=3 bus1=x_4214799e_t_07570_sld_1.1.2.3 kv=0.48 irradiance=1 Pmpp=8.39 pf=1 pctPmpp=86.96 kVA=7.3 conn=delta %cutin=0.1 %cutout=0.1 Vmaxpu=1.2
new PVSystem.3p_pv_10_47 phases=3 bus1=x_4553227e_t_07570_sld_3.1.2.3 kv=0.48 irradiance=1 Pmpp=2.76 pf=1 pctPmpp=86.96 kVA=2.4 conn=delta %cutin=0.1 %cutout=0.1 Vmaxpu=1.2
new PVSystem.c_pv_10_48 phases=1 bus1=x_1982078e_t_07570_sld_1.3 kv=0.24018 irradiance=1 Pmpp=3.33 pf=1 pctPmpp=86.96 kVA=2.9 conn=wye %cutin=0.1 %cutout=0.1 Vmaxpu=1.2
new PVSystem.3p_pv_10_49 phases=3 bus1=x_4553228e_t_07570_sld_1.1.2.3 kv=0.48 irradiance=1 Pmpp=2.3 pf=1 pctPmpp=86.96 kVA=2.0 conn=delta %cutin=0.1 %cutout=0.1 Vmaxpu=1.2
new PVSystem.3p_pv_10_50 phases=3 bus1=x_4037849e_t_07570_sld_3.1.2.3 kv=0.48 irradiance=1 Pmpp=4.25 pf=1 pctPmpp=86.96 kVA=3.7 conn=delta %cutin=0.1 %cutout=0.1 Vmaxpu=1.2
new PVSystem.3p_pv_10_51 phases=3 bus1=x_4477501e_t_07570_sld_2.1.2.3 kv=0.48 irradiance=1 Pmpp=4.44 pf=1 pctPmpp=86.96 kVA=3.86 conn=delta %cutin=0.1 %cutout=0.1 Vmaxpu=1.2
new PVSystem.3p_pv_10_52 phases=3 bus1=x_4214689e_t_07570_sld_2.1.2.3 kv=0.48 irradiance=1 Pmpp=4.44 pf=1 pctPmpp=86.96 kVA=3.86 conn=delta %cutin=0.1 %cutout=0.1 Vmaxpu=1.2
new PVSystem.3p_pv_10_53 phases=3 bus1=x_4368670e_t_07570_sld_2.1.2.3 kv=0.48 irradiance=1 Pmpp=3.91 pf=1 pctPmpp=86.96 kVA=3.4 conn=delta %cutin=0.1 %cutout=0.1 Vmaxpu=1.2
new PVSystem.b_pv_10_54 phases=1 bus1=x_4683170e_t_07570_sld_1.2 kv=0.24018 irradiance=1 Pmpp=4.71 pf=1 pctPmpp=86.96 kVA=4.1 conn=wye %cutin=0.1 %cutout=0.1 Vmaxpu=1.2
new PVSystem.c_pv_10_55 phases=1 bus1=x_2288847e_t_07570_sld_1.3 kv=0.24018 irradiance=1 Pmpp=4.37 pf=1 pctPmpp=86.96 kVA=3.8 conn=wye %cutin=0.1 %cutout=0.1 Vmaxpu=1.2
new PVSystem.3p_pv_10_56 phases=3 bus1=x_4632242e_t_07570_sld_2.1.2.3 kv=0.48 irradiance=1 Pmpp=2.99 pf=1 pctPmpp=86.96 kVA=2.6 conn=delta %cutin=0.1 %cutout=0.1 Vmaxpu=1.2
new PVSystem.b_pv_10_57 phases=1 bus1=x_591841e_t_07570_sld_1.2 kv=0.24018 irradiance=1 Pmpp=3.87 pf=1 pctPmpp=86.96 kVA=3.37 conn=wye %cutin=0.1 %cutout=0.1 Vmaxpu=1.2
new PVSystem.a_pv_10_58 phases=1 bus1=x_4419220e_t_07570_sld_1.1 kv=0.24018 irradiance=1 Pmpp=4.54 pf=1 pctPmpp=86.96 kVA=3.95 conn=wye %cutin=0.1 %cutout=0.1 Vmaxpu=1.2
new PVSystem.3p_pv_10_59 phases=3 bus1=x_4699730e_t_07570_sld_5.1.2.3 kv=0.48 irradiance=1 Pmpp=4.37 pf=1 pctPmpp=86.96 kVA=3.8 conn=delta %cutin=0.1 %cutout=0.1 Vmaxpu=1.2
new PVSystem.a_pv_10_60 phases=1 bus1=x_4552982e_t_07570_sld_1.1 kv=0.24018 irradiance=1 Pmpp=1.82 pf=1 pctPmpp=86.96 kVA=1.58 conn=wye %cutin=0.1 %cutout=0.1 Vmaxpu=1.2
new PVSystem.c_pv_10_61 phases=1 bus1=x_p5586101_t_07570_sld_1.3 kv=0.24018 irradiance=1 Pmpp=2.18 pf=1 pctPmpp=86.96 kVA=1.9 conn=wye %cutin=0.1 %cutout=0.1 Vmaxpu=1.2
new PVSystem.3p_pv_10_62 phases=3 bus1=x_4368668e_t_07570_sld_3.1.2.3 kv=0.48 irradiance=1 Pmpp=2.3 pf=1 pctPmpp=86.96 kVA=2.0 conn=delta %cutin=0.1 %cutout=0.1 Vmaxpu=1.2
new PVSystem.c_pv_10_63 phases=1 bus1=x_p5601317_t_07570_sld_5.3 kv=0.24018 irradiance=1 Pmpp=6.13 pf=1 pctPmpp=86.96 kVA=5.33 conn=wye %cutin=0.1 %cutout=0.1 Vmaxpu=1.2
new PVSystem.3p_pv_10_64 phases=3 bus1=x_4368171e_t_07570_sld_1.1.2.3 kv=0.48 irradiance=1 Pmpp=5.33 pf=1 pctPmpp=86.96 kVA=4.63 conn=delta %cutin=0.1 %cutout=0.1 Vmaxpu=1.2
new PVSystem.c_pv_10_65 phases=1 bus1=x_1813486e_t_07570_sld_1.3 kv=0.24018 irradiance=1 Pmpp=2.04 pf=1 pctPmpp=86.96 kVA=1.78 conn=wye %cutin=0.1 %cutout=0.1 Vmaxpu=1.2
new PVSystem.c_pv_10_66 phases=1 bus1=x_p5601317_t_07570_sld_3.3 kv=0.24018 irradiance=1 Pmpp=4.48 pf=1 pctPmpp=86.96 kVA=3.9 conn=wye %cutin=0.1 %cutout=0.1 Vmaxpu=1.2
new PVSystem.c_pv_10_67 phases=1 bus1=x_4362842e_t_07570_sld_1.3 kv=0.24018 irradiance=1 Pmpp=1.84 pf=1 pctPmpp=86.96 kVA=1.6 conn=wye %cutin=0.1 %cutout=0.1 Vmaxpu=1.2
new PVSystem.b_pv_10_68 phases=1 bus1=x_1807900e_t_07570_sld_1.2 kv=0.24018 irradiance=1 Pmpp=1.84 pf=1 pctPmpp=86.96 kVA=1.6 conn=wye %cutin=0.1 %cutout=0.1 Vmaxpu=1.2
new PVSystem.3p_pv_10_69 phases=3 bus1=x_4368160e_t_07570_sld_3.1.2.3 kv=0.48 irradiance=1 Pmpp=2.88 pf=1 pctPmpp=86.96 kVA=2.5 conn=delta %cutin=0.1 %cutout=0.1 Vmaxpu=1.2
new PVSystem.3p_pv_10_70 phases=3 bus1=x_2229829e_t_07570_sld_2.1.2.3 kv=0.48 irradiance=1 Pmpp=2.18 pf=1 pctPmpp=86.96 kVA=1.9 conn=delta %cutin=0.1 %cutout=0.1 Vmaxpu=1.2
new PVSystem.a_pv_10_71 phases=1 bus1=x_2093143e_t_07570_sld_1.1 kv=0.24018 irradiance=1 Pmpp=1.82 pf=1 pctPmpp=86.96 kVA=1.58 conn=wye %cutin=0.1 %cutout=0.1 Vmaxpu=1.2
new PVSystem.c_pv_10_72 phases=1 bus1=x_p5476178_t_07570_sld_1.3 kv=0.24018 irradiance=1 Pmpp=4.37 pf=1 pctPmpp=86.96 kVA=3.8 conn=wye %cutin=0.1 %cutout=0.1 Vmaxpu=1.2
new PVSystem.b_pv_10_73 phases=1 bus1=x_1763673e_t_07570_sld_1.2 kv=0.24018 irradiance=1 Pmpp=3.1 pf=1 pctPmpp=86.96 kVA=2.69 conn=wye %cutin=0.1 %cutout=0.1 Vmaxpu=1.2
new PVSystem.3p_pv_10_74 phases=3 bus1=x_1299702e_t_07570_sld_2.1.2.3 kv=0.48 irradiance=1 Pmpp=4.44 pf=1 pctPmpp=86.96 kVA=3.86 conn=delta %cutin=0.1 %cutout=0.1 Vmaxpu=1.2
new PVSystem.3p_pv_10_75 phases=3 bus1=x_4632241e_t_07570_sld_3.1.2.3 kv=0.48 irradiance=1 Pmpp=2.88 pf=1 pctPmpp=86.96 kVA=2.5 conn=delta %cutin=0.1 %cutout=0.1 Vmaxpu=1.2
new PVSystem.3p_pv_10_76 phases=3 bus1=x_p5504304_t_07570_sld_3.1.2.3 kv=0.48 irradiance=1 Pmpp=81.99 pf=1 pctPmpp=86.96 kVA=71.3 conn=delta %cutin=0.1 %cutout=0.1 Vmaxpu=1.2
new PVSystem.3p_pv_10_77 phases=3 bus1=x_12546t_t_07570_sld_5.1.2.3 kv=0.48 irradiance=1 Pmpp=3.56 pf=1 pctPmpp=86.96 kVA=3.1 conn=delta %cutin=0.1 %cutout=0.1 Vmaxpu=1.2
new PVSystem.a_pv_10_78 phases=1 bus1=x_1813486e_t_07570_sld_1.1 kv=0.24018 irradiance=1 Pmpp=1.82 pf=1 pctPmpp=86.96 kVA=1.58 conn=wye %cutin=0.1 %cutout=0.1 Vmaxpu=1.2
new PVSystem.b_pv_10_79 phases=1 bus1=x_4553240e_t_07570_sld_1.2 kv=0.24018 irradiance=1 Pmpp=2.06 pf=1 pctPmpp=86.96 kVA=1.79 conn=wye %cutin=0.1 %cutout=0.1 Vmaxpu=1.2
new PVSystem.3p_pv_10_80 phases=3 bus1=x_1299702e_t_07570_sld_1.1.2.3 kv=0.48 irradiance=1 Pmpp=4.44 pf=1 pctPmpp=86.96 kVA=3.86 conn=delta %cutin=0.1 %cutout=0.1 Vmaxpu=1.2
new PVSystem.b_pv_10_81 phases=1 bus1=x_p5476182_t_07570_sld_2.2 kv=0.24018 irradiance=1 Pmpp=2.64 pf=1 pctPmpp=86.96 kVA=2.3 conn=wye %cutin=0.1 %cutout=0.1 Vmaxpu=1.2
new PVSystem.a_pv_10_82 phases=1 bus1=x_4276440e_t_07570_sld_1.1 kv=0.24018 irradiance=1 Pmpp=4.54 pf=1 pctPmpp=86.96 kVA=3.95 conn=wye %cutin=0.1 %cutout=0.1 Vmaxpu=1.2
new PVSystem.a_pv_10_83 phases=1 bus1=x_4364055e_t_07570_sld_1.1 kv=0.24018 irradiance=1 Pmpp=2.64 pf=1 pctPmpp=86.96 kVA=2.3 conn=wye %cutin=0.1 %cutout=0.1 Vmaxpu=1.2
new PVSystem.3p_pv_10_84 phases=3 bus1=x_4342612e_t_07570_sld_1.1.2.3 kv=0.48 irradiance=1 Pmpp=4.44 pf=1 pctPmpp=86.96 kVA=3.86 conn=delta %cutin=0.1 %cutout=0.1 Vmaxpu=1.2
new PVSystem.a_pv_10_85 phases=1 bus1=x_974388e_t_07570_sld_1.1 kv=0.24018 irradiance=1 Pmpp=2.73 pf=1 pctPmpp=86.96 kVA=2.37 conn=wye %cutin=0.1 %cutout=0.1 Vmaxpu=1.2
new PVSystem.3p_pv_10_86 phases=3 bus1=x_409265e_t_07570_sld_2.1.2.3 kv=0.48 irradiance=1 Pmpp=3.22 pf=1 pctPmpp=86.96 kVA=2.8 conn=delta %cutin=0.1 %cutout=0.1 Vmaxpu=1.2
new PVSystem.3p_pv_10_87 phases=3 bus1=x_p5393567_t_07570_sld_2.1.2.3 kv=0.48 irradiance=1 Pmpp=5.33 pf=1 pctPmpp=86.96 kVA=4.63 conn=delta %cutin=0.1 %cutout=0.1 Vmaxpu=1.2
new PVSystem.b_pv_10_88 phases=1 bus1=x_4699736e_t_07570_sld_3.2 kv=0.24018 irradiance=1 Pmpp=4.02 pf=1 pctPmpp=86.96 kVA=3.5 conn=wye %cutin=0.1 %cutout=0.1 Vmaxpu=1.2
new PVSystem.a_pv_10_89 phases=1 bus1=x_p5601317_t_07570_sld_2.1 kv=0.24018 irradiance=1 Pmpp=1.61 pf=1 pctPmpp=86.96 kVA=1.4 conn=wye %cutin=0.1 %cutout=0.1 Vmaxpu=1.2
new PVSystem.b_pv_10_90 phases=1 bus1=x_1943316e_t_07570_sld_1.2 kv=0.24018 irradiance=1 Pmpp=5.16 pf=1 pctPmpp=86.96 kVA=4.49 conn=wye %cutin=0.1 %cutout=0.1 Vmaxpu=1.2
new PVSystem.b_pv_10_91 phases=1 bus1=x_397385e_t_07570_sld_1.2 kv=0.24018 irradiance=1 Pmpp=1.03 pf=1 pctPmpp=86.96 kVA=0.9 conn=wye %cutin=0.1 %cutout=0.1 Vmaxpu=1.2
new PVSystem.3p_pv_10_92 phases=3 bus1=x_4099194e_t_07570_sld_1.1.2.3 kv=0.48 irradiance=1 Pmpp=15.87 pf=1 pctPmpp=86.96 kVA=13.8 conn=delta %cutin=0.1 %cutout=0.1 Vmaxpu=1.2
new PVSystem.b_pv_10_93 phases=1 bus1=x_4772512e_t_07570_sld_3.2 kv=0.24018 irradiance=1 Pmpp=5.16 pf=1 pctPmpp=86.96 kVA=4.49 conn=wye %cutin=0.1 %cutout=0.1 Vmaxpu=1.2
new PVSystem.b_pv_10_94 phases=1 bus1=x_4629401e_t_07570_sld_1.2 kv=0.24018 irradiance=1 Pmpp=3.1 pf=1 pctPmpp=86.96 kVA=2.69 conn=wye %cutin=0.1 %cutout=0.1 Vmaxpu=1.2
new PVSystem.a_pv_10_95 phases=1 bus1=x_4505903e_t_07570_sld_1.1 kv=0.24018 irradiance=1 Pmpp=2.73 pf=1 pctPmpp=86.96 kVA=2.37 conn=wye %cutin=0.1 %cutout=0.1 Vmaxpu=1.2
new PVSystem.a_pv_10_96 phases=1 bus1=x_4699736e_t_07570_sld_3.1 kv=0.24018 irradiance=1 Pmpp=4.54 pf=1 pctPmpp=86.96 kVA=3.95 conn=wye %cutin=0.1 %cutout=0.1 Vmaxpu=1.2
new PVSystem.b_pv_10_97 phases=1 bus1=x_1851663e_t_07570_sld_1.2 kv=0.24018 irradiance=1 Pmpp=3.87 pf=1 pctPmpp=86.96 kVA=3.37 conn=wye %cutin=0.1 %cutout=0.1 Vmaxpu=1.2
new PVSystem.3p_pv_10_98 phases=3 bus1=x_396528e_t_07570_sld_2.1.2.3 kv=0.48 irradiance=1 Pmpp=4.94 pf=1 pctPmpp=86.96 kVA=4.3 conn=delta %cutin=0.1 %cutout=0.1 Vmaxpu=1.2
new PVSystem.a_pv_10_99 phases=1 bus1=x_p5403124_t_07570_sld_1.1 kv=0.24018 irradiance=1 Pmpp=4.54 pf=1 pctPmpp=86.96 kVA=3.95 conn=wye %cutin=0.1 %cutout=0.1 Vmaxpu=1.2
new PVSystem.a_pv_10_100 phases=1 bus1=x_1851663e_t_07570_sld_1.1 kv=0.24018 irradiance=1 Pmpp=3.1 pf=1 pctPmpp=86.96 kVA=2.7 conn=wye %cutin=0.1 %cutout=0.1 Vmaxpu=1.2
new PVSystem.a_pv_10_101 phases=1 bus1=x_4661656e_t_07570_sld_1.1 kv=0.24018 irradiance=1 Pmpp=3.68 pf=1 pctPmpp=86.96 kVA=3.2 conn=wye %cutin=0.1 %cutout=0.1 Vmaxpu=1.2
new PVSystem.3p_pv_10_102 phases=3 bus1=x_4368668e_t_07570_sld_2.1.2.3 kv=0.48 irradiance=1 Pmpp=4.44 pf=1 pctPmpp=86.96 kVA=3.86 conn=delta %cutin=0.1 %cutout=0.1 Vmaxpu=1.2
new PVSystem.b_pv_10_103 phases=1 bus1=x_4772512e_t_07570_sld_2.2 kv=0.24018 irradiance=1 Pmpp=4.48 pf=1 pctPmpp=86.96 kVA=3.9 conn=wye %cutin=0.1 %cutout=0.1 Vmaxpu=1.2
new PVSystem.3p_pv_10_104 phases=3 bus1=x_4632239e_t_07570_sld_1.1.2.3 kv=0.48 irradiance=1 Pmpp=3.91 pf=1 pctPmpp=86.96 kVA=3.4 conn=delta %cutin=0.1 %cutout=0.1 Vmaxpu=1.2
new PVSystem.3p_pv_10_105 phases=3 bus1=x_4276446e_t_07570_sld_5.1.2.3 kv=0.48 irradiance=1 Pmpp=5.33 pf=1 pctPmpp=86.96 kVA=4.63 conn=delta %cutin=0.1 %cutout=0.1 Vmaxpu=1.2
new PVSystem.3p_pv_10_106 phases=3 bus1=x_451201e_t_07570_sld_3.1.2.3 kv=0.48 irradiance=1 Pmpp=2.42 pf=1 pctPmpp=86.96 kVA=2.1 conn=delta %cutin=0.1 %cutout=0.1 Vmaxpu=1.2
new PVSystem.3p_pv_10_107 phases=3 bus1=x_4026131e_t_07570_sld_1.1.2.3 kv=0.48 irradiance=1 Pmpp=4.02 pf=1 pctPmpp=86.96 kVA=3.5 conn=delta %cutin=0.1 %cutout=0.1 Vmaxpu=1.2
new PVSystem.3p_pv_10_108 phases=3 bus1=x_4251734e_t_07570_sld_1.1.2.3 kv=0.48 irradiance=1 Pmpp=3.91 pf=1 pctPmpp=86.96 kVA=3.4 conn=delta %cutin=0.1 %cutout=0.1 Vmaxpu=1.2
new PVSystem.3p_pv_10_109 phases=3 bus1=x_1434873e_t_07570_sld_1.1.2.3 kv=0.48 irradiance=1 Pmpp=2.66 pf=1 pctPmpp=86.96 kVA=2.32 conn=delta %cutin=0.1 %cutout=0.1 Vmaxpu=1.2
new PVSystem.3p_pv_10_110 phases=3 bus1=x_4296072e_t_07570_sld_1.1.2.3 kv=0.48 irradiance=1 Pmpp=2.64 pf=1 pctPmpp=86.96 kVA=2.3 conn=delta %cutin=0.1 %cutout=0.1 Vmaxpu=1.2
new PVSystem.3p_pv_10_111 phases=3 bus1=x_1807862e_t_07570_sld_4.1.2.3 kv=0.48 irradiance=1 Pmpp=4.14 pf=1 pctPmpp=86.96 kVA=3.6 conn=delta %cutin=0.1 %cutout=0.1 Vmaxpu=1.2
new PVSystem.a_pv_10_112 phases=1 bus1=x_p5476178_t_07570_sld_2.1 kv=0.24018 irradiance=1 Pmpp=3.45 pf=1 pctPmpp=86.96 kVA=3.0 conn=wye %cutin=0.1 %cutout=0.1 Vmaxpu=1.2
new PVSystem.3p_pv_10_113 phases=3 bus1=x_7954t_t_07570_sld_1.1.2.3 kv=0.48 irradiance=1 Pmpp=5.4 pf=1 pctPmpp=86.96 kVA=4.7 conn=delta %cutin=0.1 %cutout=0.1 Vmaxpu=1.2
new PVSystem.3p_pv_10_114 phases=3 bus1=x_837633e_t_07570_sld_1.1.2.3 kv=0.48 irradiance=1 Pmpp=3.68 pf=1 pctPmpp=86.96 kVA=3.2 conn=delta %cutin=0.1 %cutout=0.1 Vmaxpu=1.2
new PVSystem.3p_pv_10_115 phases=3 bus1=x_12546t_t_07570_sld_3.1.2.3 kv=0.48 irradiance=1 Pmpp=4.79 pf=1 pctPmpp=86.96 kVA=4.17 conn=delta %cutin=0.1 %cutout=0.1 Vmaxpu=1.2
new PVSystem.b_pv_10_116 phases=1 bus1=x_p5476182_t_07570_sld_4.2 kv=0.24018 irradiance=1 Pmpp=6.19 pf=1 pctPmpp=86.96 kVA=5.38 conn=wye %cutin=0.1 %cutout=0.1 Vmaxpu=1.2
new PVSystem.a_pv_10_117 phases=1 bus1=x_808076e_t_07570_sld_1.1 kv=0.24018 irradiance=1 Pmpp=1.82 pf=1 pctPmpp=86.96 kVA=1.58 conn=wye %cutin=0.1 %cutout=0.1 Vmaxpu=1.2
new PVSystem.b_pv_10_118 phases=1 bus1=x_4772512e_t_07570_sld_1.2 kv=0.24018 irradiance=1 Pmpp=4.94 pf=1 pctPmpp=86.96 kVA=4.3 conn=wye %cutin=0.1 %cutout=0.1 Vmaxpu=1.2
new PVSystem.c_pv_10_119 phases=1 bus1=x_4419220e_t_07570_sld_1.3 kv=0.24018 irradiance=1 Pmpp=5.1 pf=1 pctPmpp=86.96 kVA=4.44 conn=wye %cutin=0.1 %cutout=0.1 Vmaxpu=1.2
new PVSystem.b_pv_10_120 phases=1 bus1=x_2288841e_t_07570_sld_1.2 kv=0.24018 irradiance=1 Pmpp=2.06 pf=1 pctPmpp=86.96 kVA=1.79 conn=wye %cutin=0.1 %cutout=0.1 Vmaxpu=1.2
new PVSystem.c_pv_10_121 phases=1 bus1=x_1851663e_t_07570_sld_1.3 kv=0.24018 irradiance=1 Pmpp=1.95 pf=1 pctPmpp=86.96 kVA=1.7 conn=wye %cutin=0.1 %cutout=0.1 Vmaxpu=1.2
new PVSystem.3p_pv_10_122 phases=3 bus1=x_2331624e_t_07570_sld_1.1.2.3 kv=0.48 irradiance=1 Pmpp=5.63 pf=1 pctPmpp=86.96 kVA=4.9 conn=delta %cutin=0.1 %cutout=0.1 Vmaxpu=1.2
new PVSystem.a_pv_10_123 phases=1 bus1=x_458811e_t_07570_sld_1.1 kv=0.24018 irradiance=1 Pmpp=1.82 pf=1 pctPmpp=86.96 kVA=1.58 conn=wye %cutin=0.1 %cutout=0.1 Vmaxpu=1.2
new PVSystem.3p_pv_10_124 phases=3 bus1=x_4772513e_t_07570_sld_3.1.2.3 kv=0.48 irradiance=1 Pmpp=3.45 pf=1 pctPmpp=86.96 kVA=3.0 conn=delta %cutin=0.1 %cutout=0.1 Vmaxpu=1.2
new PVSystem.3p_pv_10_125 phases=3 bus1=x_4067585e_t_07570_sld_4.1.2.3 kv=0.48 irradiance=1 Pmpp=4.79 pf=1 pctPmpp=86.96 kVA=4.17 conn=delta %cutin=0.1 %cutout=0.1 Vmaxpu=1.2
new PVSystem.3p_pv_10_126 phases=3 bus1=x_4210436e_t_07570_sld_4.1.2.3 kv=0.48 irradiance=1 Pmpp=3.1 pf=1 pctPmpp=86.96 kVA=2.7 conn=delta %cutin=0.1 %cutout=0.1 Vmaxpu=1.2
new PVSystem.3p_pv_10_127 phases=3 bus1=x_2253647e_t_07570_sld_1.1.2.3 kv=0.48 irradiance=1 Pmpp=5.33 pf=1 pctPmpp=86.96 kVA=4.63 conn=delta %cutin=0.1 %cutout=0.1 Vmaxpu=1.2
new PVSystem.3p_pv_10_128 phases=3 bus1=x_p5504304_t_07570_sld_1.1.2.3 kv=0.48 irradiance=1 Pmpp=100.74 pf=1 pctPmpp=86.96 kVA=87.6 conn=delta %cutin=0.1 %cutout=0.1 Vmaxpu=1.2
new PVSystem.a_pv_10_129 phases=1 bus1=x_4227069e_t_07570_sld_1.1 kv=0.24018 irradiance=1 Pmpp=3.41 pf=1 pctPmpp=86.96 kVA=2.96 conn=wye %cutin=0.1 %cutout=0.1 Vmaxpu=1.2
new PVSystem.a_pv_10_130 phases=1 bus1=x_1943316e_t_07570_sld_1.1 kv=0.24018 irradiance=1 Pmpp=4.54 pf=1 pctPmpp=86.96 kVA=3.95 conn=wye %cutin=0.1 %cutout=0.1 Vmaxpu=1.2
new PVSystem.3p_pv_10_131 phases=3 bus1=x_2164704e_t_07570_sld_1.1.2.3 kv=0.48 irradiance=1 Pmpp=4.0 pf=1 pctPmpp=86.96 kVA=3.48 conn=delta %cutin=0.1 %cutout=0.1 Vmaxpu=1.2
new PVSystem.3p_pv_10_132 phases=3 bus1=x_4210436e_t_07570_sld_1.1.2.3 kv=0.48 irradiance=1 Pmpp=4.79 pf=1 pctPmpp=86.96 kVA=4.17 conn=delta %cutin=0.1 %cutout=0.1 Vmaxpu=1.2
new PVSystem.b_pv_10_133 phases=1 bus1=x_2024837e_t_07570_sld_1.2 kv=0.24018 irradiance=1 Pmpp=5.16 pf=1 pctPmpp=86.96 kVA=4.49 conn=wye %cutin=0.1 %cutout=0.1 Vmaxpu=1.2
new PVSystem.3p_pv_10_134 phases=3 bus1=x_12546t_t_07570_sld_4.1.2.3 kv=0.48 irradiance=1 Pmpp=4.79 pf=1 pctPmpp=86.96 kVA=4.17 conn=delta %cutin=0.1 %cutout=0.1 Vmaxpu=1.2
new PVSystem.3p_pv_10_135 phases=3 bus1=x_4671820e_t_07570_sld_1.1.2.3 kv=0.48 irradiance=1 Pmpp=3.91 pf=1 pctPmpp=86.96 kVA=3.4 conn=delta %cutin=0.1 %cutout=0.1 Vmaxpu=1.2
new PVSystem.a_pv_10_136 phases=1 bus1=x_837903e_t_07570_sld_1.1 kv=0.24018 irradiance=1 Pmpp=4.54 pf=1 pctPmpp=86.96 kVA=3.95 conn=wye %cutin=0.1 %cutout=0.1 Vmaxpu=1.2
new PVSystem.3p_pv_10_137 phases=3 bus1=x_4587530e_t_07570_sld_1.1.2.3 kv=0.48 irradiance=1 Pmpp=1.72 pf=1 pctPmpp=86.96 kVA=1.5 conn=delta %cutin=0.1 %cutout=0.1 Vmaxpu=1.2
new PVSystem.3p_pv_10_138 phases=3 bus1=x_4587530e_t_07570_sld_2.1.2.3 kv=0.48 irradiance=1 Pmpp=1.61 pf=1 pctPmpp=86.96 kVA=1.4 conn=delta %cutin=0.1 %cutout=0.1 Vmaxpu=1.2
new PVSystem.3p_pv_10_139 phases=3 bus1=x_392078e_t_07570_sld_1.1.2.3 kv=0.48 irradiance=1 Pmpp=2.66 pf=1 pctPmpp=86.96 kVA=2.32 conn=delta %cutin=0.1 %cutout=0.1 Vmaxpu=1.2
new PVSystem.3p_pv_10_140 phases=3 bus1=x_1406796e_t_07570_sld_2.1.2.3 kv=0.48 irradiance=1 Pmpp=7.13 pf=1 pctPmpp=86.96 kVA=6.2 conn=delta %cutin=0.1 %cutout=0.1 Vmaxpu=1.2
new PVSystem.b_pv_10_141 phases=1 bus1=x_2198214e_t_07570_sld_1.2 kv=0.24018 irradiance=1 Pmpp=4.02 pf=1 pctPmpp=86.96 kVA=3.5 conn=wye %cutin=0.1 %cutout=0.1 Vmaxpu=1.2
new PVSystem.b_pv_10_142 phases=1 bus1=x_4354639e_t_07570_sld_1.2 kv=0.24018 irradiance=1 Pmpp=3.1 pf=1 pctPmpp=86.96 kVA=2.7 conn=wye %cutin=0.1 %cutout=0.1 Vmaxpu=1.2
new PVSystem.c_pv_10_143 phases=1 bus1=x_4354639e_t_07570_sld_1.3 kv=0.24018 irradiance=1 Pmpp=3.83 pf=1 pctPmpp=86.96 kVA=3.33 conn=wye %cutin=0.1 %cutout=0.1 Vmaxpu=1.2
new PVSystem.3p_pv_10_144 phases=3 bus1=x_4700177e_t_07570_sld_2.1.2.3 kv=0.48 irradiance=1 Pmpp=12.3 pf=1 pctPmpp=86.96 kVA=10.7 conn=delta %cutin=0.1 %cutout=0.1 Vmaxpu=1.2
new PVSystem.3p_pv_10_145 phases=3 bus1=x_4130912e_t_07570_sld_1.1.2.3 kv=0.48 irradiance=1 Pmpp=4.94 pf=1 pctPmpp=86.96 kVA=4.3 conn=delta %cutin=0.1 %cutout=0.1 Vmaxpu=1.2
new PVSystem.a_pv_10_146 phases=1 bus1=x_755716e_t_07570_sld_1.1 kv=0.24018 irradiance=1 Pmpp=5.11 pf=1 pctPmpp=86.96 kVA=4.45 conn=wye %cutin=0.1 %cutout=0.1 Vmaxpu=1.2
new PVSystem.b_pv_10_147 phases=1 bus1=x_4419220e_t_07570_sld_1.2 kv=0.24018 irradiance=1 Pmpp=5.16 pf=1 pctPmpp=86.96 kVA=4.49 conn=wye %cutin=0.1 %cutout=0.1 Vmaxpu=1.2
new PVSystem.b_pv_10_148 phases=1 bus1=x_2331043e_t_07570_sld_1.2 kv=0.24018 irradiance=1 Pmpp=2.06 pf=1 pctPmpp=86.96 kVA=1.79 conn=wye %cutin=0.1 %cutout=0.1 Vmaxpu=1.2
new PVSystem.3p_pv_10_149 phases=3 bus1=x_b5372741_t_07570_sld_1.1.2.3 kv=0.48 irradiance=1 Pmpp=4.44 pf=1 pctPmpp=86.96 kVA=3.86 conn=delta %cutin=0.1 %cutout=0.1 Vmaxpu=1.2
new PVSystem.3p_pv_10_150 phases=3 bus1=x_4658388e_t_07570_sld_1.1.2.3 kv=0.48 irradiance=1 Pmpp=4.83 pf=1 pctPmpp=86.96 kVA=4.2 conn=delta %cutin=0.1 %cutout=0.1 Vmaxpu=1.2
new PVSystem.3p_pv_10_151 phases=3 bus1=x_4772513e_t_07570_sld_2.1.2.3 kv=0.48 irradiance=1 Pmpp=11.38 pf=1 pctPmpp=86.96 kVA=9.9 conn=delta %cutin=0.1 %cutout=0.1 Vmaxpu=1.2
new PVSystem.3p_pv_10_152 phases=3 bus1=x_4368157e_t_07570_sld_1.1.2.3 kv=0.48 irradiance=1 Pmpp=4.0 pf=1 pctPmpp=86.96 kVA=3.48 conn=delta %cutin=0.1 %cutout=0.1 Vmaxpu=1.2
new PVSystem.b_pv_10_153 phases=1 bus1=x_1406528e_t_07570_sld_1.2 kv=0.24018 irradiance=1 Pmpp=3.1 pf=1 pctPmpp=86.96 kVA=2.69 conn=wye %cutin=0.1 %cutout=0.1 Vmaxpu=1.2
new PVSystem.3p_pv_10_154 phases=3 bus1=x_4067585e_t_07570_sld_5.1.2.3 kv=0.48 irradiance=1 Pmpp=2.07 pf=1 pctPmpp=86.96 kVA=1.8 conn=delta %cutin=0.1 %cutout=0.1 Vmaxpu=1.2
new PVSystem.b_pv_10_155 phases=1 bus1=x_p5059072_t_07570_sld_2.2 kv=0.24018 irradiance=1 Pmpp=4.02 pf=1 pctPmpp=86.96 kVA=3.5 conn=wye %cutin=0.1 %cutout=0.1 Vmaxpu=1.2
new PVSystem.a_pv_10_156 phases=1 bus1=x_4661656e_t_07570_sld_3.1 kv=0.24018 irradiance=1 Pmpp=4.54 pf=1 pctPmpp=86.96 kVA=3.95 conn=wye %cutin=0.1 %cutout=0.1 Vmaxpu=1.2
new PVSystem.a_pv_10_157 phases=1 bus1=x_591841e_t_07570_sld_1.1 kv=0.24018 irradiance=1 Pmpp=3.41 pf=1 pctPmpp=86.96 kVA=2.96 conn=wye %cutin=0.1 %cutout=0.1 Vmaxpu=1.2
new PVSystem.c_pv_10_158 phases=1 bus1=x_4699736e_t_07570_sld_1.3 kv=0.24018 irradiance=1 Pmpp=5.1 pf=1 pctPmpp=86.96 kVA=4.44 conn=wye %cutin=0.1 %cutout=0.1 Vmaxpu=1.2
new PVSystem.a_pv_10_159 phases=1 bus1=x_4553236e_t_07570_sld_1.1 kv=0.24018 irradiance=1 Pmpp=1.82 pf=1 pctPmpp=86.96 kVA=1.58 conn=wye %cutin=0.1 %cutout=0.1 Vmaxpu=1.2
new PVSystem.3p_pv_10_160 phases=3 bus1=x_936059e_t_07570_sld_3.1.2.3 kv=0.48 irradiance=1 Pmpp=5.17 pf=1 pctPmpp=86.96 kVA=4.5 conn=delta %cutin=0.1 %cutout=0.1 Vmaxpu=1.2
new PVSystem.b_pv_10_161 phases=1 bus1=x_4553236e_t_07570_sld_1.2 kv=0.24018 irradiance=1 Pmpp=2.06 pf=1 pctPmpp=86.96 kVA=1.79 conn=wye %cutin=0.1 %cutout=0.1 Vmaxpu=1.2
new PVSystem.c_pv_10_162 phases=1 bus1=x_4419220e_t_07570_sld_2.3 kv=0.24018 irradiance=1 Pmpp=5.1 pf=1 pctPmpp=86.96 kVA=4.44 conn=wye %cutin=0.1 %cutout=0.1 Vmaxpu=1.2
new PVSystem.a_pv_10_163 phases=1 bus1=x_1763673e_t_07570_sld_1.1 kv=0.24018 irradiance=1 Pmpp=2.73 pf=1 pctPmpp=86.96 kVA=2.37 conn=wye %cutin=0.1 %cutout=0.1 Vmaxpu=1.2
new PVSystem.3p_pv_10_164 phases=3 bus1=x_4362820e_t_07570_sld_2.1.2.3 kv=0.48 irradiance=1 Pmpp=4.14 pf=1 pctPmpp=86.96 kVA=3.6 conn=delta %cutin=0.1 %cutout=0.1 Vmaxpu=1.2
new PVSystem.3p_pv_10_165 phases=3 bus1=x_4368667e_t_07570_sld_1.1.2.3 kv=0.48 irradiance=1 Pmpp=11.15 pf=1 pctPmpp=86.96 kVA=9.7 conn=delta %cutin=0.1 %cutout=0.1 Vmaxpu=1.2
new PVSystem.3p_pv_10_166 phases=3 bus1=x_4699729e_t_07570_sld_3.1.2.3 kv=0.48 irradiance=1 Pmpp=4.79 pf=1 pctPmpp=86.96 kVA=4.17 conn=delta %cutin=0.1 %cutout=0.1 Vmaxpu=1.2
new PVSystem.3p_pv_10_167 phases=3 bus1=x_p5618240_t_07570_sld_1.1.2.3 kv=0.48 irradiance=1 Pmpp=9.31 pf=1 pctPmpp=86.96 kVA=8.1 conn=delta %cutin=0.1 %cutout=0.1 Vmaxpu=1.2
new PVSystem.c_pv_10_168 phases=1 bus1=x_837903e_t_07570_sld_1.3 kv=0.24018 irradiance=1 Pmpp=5.1 pf=1 pctPmpp=86.96 kVA=4.44 conn=wye %cutin=0.1 %cutout=0.1 Vmaxpu=1.2
new PVSystem.c_pv_10_169 phases=1 bus1=x_p5059072_t_07570_sld_1.3 kv=0.24018 irradiance=1 Pmpp=5.1 pf=1 pctPmpp=86.96 kVA=4.44 conn=wye %cutin=0.1 %cutout=0.1 Vmaxpu=1.2
new PVSystem.a_pv_10_170 phases=1 bus1=x_1898793e_t_07570_sld_1.1 kv=0.24018 irradiance=1 Pmpp=5.45 pf=1 pctPmpp=86.96 kVA=4.74 conn=wye %cutin=0.1 %cutout=0.1 Vmaxpu=1.2
new PVSystem.3p_pv_10_171 phases=3 bus1=x_2212593e_t_07570_sld_2.1.2.3 kv=0.48 irradiance=1 Pmpp=15.64 pf=1 pctPmpp=86.96 kVA=13.6 conn=delta %cutin=0.1 %cutout=0.1 Vmaxpu=1.2
new PVSystem.3p_pv_10_172 phases=3 bus1=x_4705656e_t_07570_sld_1.1.2.3 kv=0.48 irradiance=1 Pmpp=5.98 pf=1 pctPmpp=86.96 kVA=5.2 conn=delta %cutin=0.1 %cutout=0.1 Vmaxpu=1.2
new PVSystem.b_pv_10_173 phases=1 bus1=x_4659047e_t_07570_sld_1.2 kv=0.24018 irradiance=1 Pmpp=5.16 pf=1 pctPmpp=86.96 kVA=4.49 conn=wye %cutin=0.1 %cutout=0.1 Vmaxpu=1.2
new PVSystem.a_pv_10_174 phases=1 bus1=x_2093101e_t_07570_sld_1.1 kv=0.24018 irradiance=1 Pmpp=4.09 pf=1 pctPmpp=86.96 kVA=3.56 conn=wye %cutin=0.1 %cutout=0.1 Vmaxpu=1.2
new PVSystem.3p_pv_10_175 phases=3 bus1=x_p5504304_t_07570_sld_2.1.2.3 kv=0.48 irradiance=1 Pmpp=22.77 pf=1 pctPmpp=86.96 kVA=19.8 conn=delta %cutin=0.1 %cutout=0.1 Vmaxpu=1.2
new PVSystem.3p_pv_10_176 phases=3 bus1=x_744583e_t_07570_sld_3.1.2.3 kv=0.48 irradiance=1 Pmpp=4.44 pf=1 pctPmpp=86.96 kVA=3.86 conn=delta %cutin=0.1 %cutout=0.1 Vmaxpu=1.2
new PVSystem.3p_pv_10_177 phases=3 bus1=x_1254458e_t_07570_sld_3.1.2.3 kv=0.48 irradiance=1 Pmpp=1.49 pf=1 pctPmpp=86.96 kVA=1.3 conn=delta %cutin=0.1 %cutout=0.1 Vmaxpu=1.2
new PVSystem.3p_pv_10_178 phases=3 bus1=x_p5476190_t_07570_sld_2.1.2.3 kv=0.48 irradiance=1 Pmpp=5.17 pf=1 pctPmpp=86.96 kVA=4.5 conn=delta %cutin=0.1 %cutout=0.1 Vmaxpu=1.2
new PVSystem.3p_pv_10_179 phases=3 bus1=x_4354747e_t_07570_sld_1.1.2.3 kv=0.48 irradiance=1 Pmpp=3.1 pf=1 pctPmpp=86.96 kVA=2.7 conn=delta %cutin=0.1 %cutout=0.1 Vmaxpu=1.2
new PVSystem.3p_pv_10_180 phases=3 bus1=x_1254458e_t_07570_sld_1.1.2.3 kv=0.48 irradiance=1 Pmpp=1.38 pf=1 pctPmpp=86.96 kVA=1.2 conn=delta %cutin=0.1 %cutout=0.1 Vmaxpu=1.2
new PVSystem.b_pv_10_181 phases=1 bus1=x_p5476182_t_07570_sld_3.2 kv=0.24018 irradiance=1 Pmpp=5.52 pf=1 pctPmpp=86.96 kVA=4.8 conn=wye %cutin=0.1 %cutout=0.1 Vmaxpu=1.2
new PVSystem.c_pv_10_182 phases=1 bus1=x_p5476178_t_07570_sld_2.3 kv=0.24018 irradiance=1 Pmpp=3.45 pf=1 pctPmpp=86.96 kVA=3.0 conn=wye %cutin=0.1 %cutout=0.1 Vmaxpu=1.2
new PVSystem.c_pv_10_183 phases=1 bus1=x_p5601317_t_07570_sld_4.3 kv=0.24018 irradiance=1 Pmpp=5.17 pf=1 pctPmpp=86.96 kVA=4.5 conn=wye %cutin=0.1 %cutout=0.1 Vmaxpu=1.2
new PVSystem.a_pv_10_184 phases=1 bus1=x_1982338e_t_07570_sld_1.1 kv=0.24018 irradiance=1 Pmpp=1.82 pf=1 pctPmpp=86.96 kVA=1.58 conn=wye %cutin=0.1 %cutout=0.1 Vmaxpu=1.2
new PVSystem.3p_pv_10_185 phases=3 bus1=x_4784743e_t_07570_sld_2.1.2.3 kv=0.48 irradiance=1 Pmpp=1.49 pf=1 pctPmpp=86.96 kVA=1.3 conn=delta %cutin=0.1 %cutout=0.1 Vmaxpu=1.2
new PVSystem.3p_pv_10_186 phases=3 bus1=x_4368667e_t_07570_sld_2.1.2.3 kv=0.48 irradiance=1 Pmpp=8.05 pf=1 pctPmpp=86.96 kVA=7.0 conn=delta %cutin=0.1 %cutout=0.1 Vmaxpu=1.2
new PVSystem.c_pv_10_187 phases=1 bus1=x_4699973e_t_07570_sld_1.3 kv=0.24018 irradiance=1 Pmpp=3.83 pf=1 pctPmpp=86.96 kVA=3.33 conn=wye %cutin=0.1 %cutout=0.1 Vmaxpu=1.2
new PVSystem.c_pv_10_188 phases=1 bus1=x_4661656e_t_07570_sld_2.3 kv=0.24018 irradiance=1 Pmpp=5.1 pf=1 pctPmpp=86.96 kVA=4.44 conn=wye %cutin=0.1 %cutout=0.1 Vmaxpu=1.2
new PVSystem.3p_pv_10_189 phases=3 bus1=x_4540960e_t_07570_sld_2.1.2.3 kv=0.48 irradiance=1 Pmpp=3.33 pf=1 pctPmpp=86.96 kVA=2.9 conn=delta %cutin=0.1 %cutout=0.1 Vmaxpu=1.2
new PVSystem.3p_pv_10_190 phases=3 bus1=x_p5411969_t_07570_sld_2.1.2.3 kv=0.48 irradiance=1 Pmpp=6.67 pf=1 pctPmpp=86.96 kVA=5.8 conn=delta %cutin=0.1 %cutout=0.1 Vmaxpu=1.2
new PVSystem.a_pv_10_191 phases=1 bus1=x_p5476182_t_07570_sld_1.1 kv=0.24018 irradiance=1 Pmpp=5.45 pf=1 pctPmpp=86.96 kVA=4.74 conn=wye %cutin=0.1 %cutout=0.1 Vmaxpu=1.2
new PVSystem.3p_pv_10_192 phases=3 bus1=x_4226560e_t_07570_sld_3.1.2.3 kv=0.48 irradiance=1 Pmpp=4.66 pf=1 pctPmpp=86.96 kVA=4.05 conn=delta %cutin=0.1 %cutout=0.1 Vmaxpu=1.2
new PVSystem.3p_pv_10_193 phases=3 bus1=x_4699730e_t_07570_sld_3.1.2.3 kv=0.48 irradiance=1 Pmpp=3.33 pf=1 pctPmpp=86.96 kVA=2.9 conn=delta %cutin=0.1 %cutout=0.1 Vmaxpu=1.2
new PVSystem.3p_pv_10_194 phases=3 bus1=x_4362819e_t_07570_sld_1.1.2.3 kv=0.48 irradiance=1 Pmpp=2.99 pf=1 pctPmpp=86.96 kVA=2.6 conn=delta %cutin=0.1 %cutout=0.1 Vmaxpu=1.2
new PVSystem.a_pv_10_195 phases=1 bus1=x_4099100e_t_07570_sld_1.1 kv=0.24018 irradiance=1 Pmpp=4.54 pf=1 pctPmpp=86.96 kVA=3.95 conn=wye %cutin=0.1 %cutout=0.1 Vmaxpu=1.2
new PVSystem.a_pv_10_196 phases=1 bus1=x_4289368e_t_07570_sld_1.1 kv=0.24018 irradiance=1 Pmpp=1.82 pf=1 pctPmpp=86.96 kVA=1.58 conn=wye %cutin=0.1 %cutout=0.1 Vmaxpu=1.2
new PVSystem.a_pv_10_197 phases=1 bus1=x_4227069e_t_07570_sld_2.1 kv=0.24018 irradiance=1 Pmpp=1.95 pf=1 pctPmpp=86.96 kVA=1.7 conn=wye %cutin=0.1 %cutout=0.1 Vmaxpu=1.2
new PVSystem.3p_pv_10_198 phases=3 bus1=x_4699954e_t_07570_sld_1.1.2.3 kv=0.48 irradiance=1 Pmpp=7.01 pf=1 pctPmpp=86.96 kVA=6.1 conn=delta %cutin=0.1 %cutout=0.1 Vmaxpu=1.2
new PVSystem.b_pv_10_199 phases=1 bus1=x_2212993e_t_07570_sld_1.2 kv=0.24018 irradiance=1 Pmpp=2.06 pf=1 pctPmpp=86.96 kVA=1.79 conn=wye %cutin=0.1 %cutout=0.1 Vmaxpu=1.2
new PVSystem.a_pv_10_200 phases=1 bus1=x_4477301e_t_07570_sld_1.1 kv=0.24018 irradiance=1 Pmpp=4.54 pf=1 pctPmpp=86.96 kVA=3.95 conn=wye %cutin=0.1 %cutout=0.1 Vmaxpu=1.2
...
